[TANK]
407	-2039.13	5.0
[JUNCTIONS]
53	35.11	0.3622185757828727
65	38.6	0.3814111468321213
111	36.26	0.326560495885244
154	35.17	0.31063739703163407
158	35.54	0.37924885683208964
229	35.09	0.3438908132339814
234	38.32	0.41210858122332883
236	40.47	0.5268979423369138
340	37.89	0.38485204640310444
381	37.91	0.3350006703769043
[PIPES]
[JUNDEMANDS]
32	0.02007627164724253	0.04998439206468519
33	0.030001755478292952	0.04998439206468462
34	0.09997050438142549	0.04998439206463289
35	70.76106110862521	6.991885546909411
36	6.050421724292424e-05	0.04998439206468627
37	0.08000692429368829	0.049984392064686245
38	0.10005725078277232	0.04998439206468624
39	0.020028555382071597	0.049984392064686405
40	0.05007018336477389	0.04998439206468639
41	0.10002228755535858	0.04998439206468666
42	0.020030609034719874	0.049984392064686675
43	0.02002888930797419	0.04998439206468667
44	0.1299462057548847	0.04998439206468668
45	0.020039436120534524	0.049984392064686765
46	0.10997126255819932	0.04998439206468676
47	0.12996617143722658	0.04998439206468672
48	0.030045581578329435	0.049984392064686724
49	0.1499296295097743	0.0499843920646872
50	0.09002229371749929	0.049984392064687216
51	0.030014216200696543	0.049984392064687695
52	0.050044922827832926	0.04998439206468768
53	0.04003868749533926	0.04998439206468767
54	0.11999216250696244	0.04998439206468768
55	0.11003210509556216	0.04998439206468768
56	0.09999390782954862	0.04998439206468769
57	0.13994642528741622	0.04998439206468769
58	0.07999758261006269	0.0499843920646877
59	0.13991336689208214	0.049984392064692705
60	0.03009335447657612	0.049984392064692726
61	0.13000897928428215	0.04998439206469272
62	0.11996275018227696	0.049984392064692726
63	0.05999344557559184	0.04998439206469274
64	2.383661992071636e-05	0.04998439206469206
65	0.13001006881996124	0.04998439206469207
66	0.1099639252412043	0.04998439206469354
67	0.010078569499533615	0.04998439206469349
68	0.10995181102814904	0.049984392064693496
69	0.030016495857969214	0.04998439206469341
70	0.06001044522995315	0.04998439206469354
71	0.01005804571612501	0.04998439206469362
72	0.05004106941467507	0.04998439206469366
73	0.09995997387621626	0.04998439206469366
74	0.09002962183966323	0.04998439206469368
75	0.10998438143080583	0.049984392064693794
76	0.15993422768899945	0.04998439206469418
77	0.02010474008602379	0.04998439206469451
78	0.07001661962217434	0.04998439206469982
79	0.09002060401675752	0.04998439206469979
80	0.06007179254768232	0.04998439206469981
81	0.08998262397669168	0.04998439206469981
82	0.020093815026650957	0.04998439206469981
83	0.09004113523903809	0.049984392064699824
84	0.08003747418080251	0.04998439206469981
85	0.1300423187603996	0.049984392064699804
86	0.030067619643465042	0.04998439206469981
87	2.3289410361867303e-05	0.049984392064699804
88	0.07004132414436681	0.04998439206470043
89	0.12999571177134853	0.04998439206470042
90	0.08999881227037078	0.049984392064700435
91	0.08996967742866287	0.04998439206470043
92	3.620544605228285	1.9374477473169747
93	0.9197852477203585	0.5586204984740618
94	0.852995369838762	0.5586204984740626
95	0.7674112432566286	0.5586205514397005
96	5.46613552843043	2.082699993098307
97	0.45137265460061704	0.5586205307233524
98	1.4070721372767352	1.0312337479684845
99	0.8758393489616325	1.03123374796849
100	7.037937769758187	1.9375422710444212
101	5.216667915713462	2.352179038676667
102	5.157634180551014	2.3521852918224755
103	40.34983105812043	5.748495910488436
104	6.791019348364173	2.1888772126285403
105	5.841889937902778	2.1888738459645687
106	7.715723661546843	1.9375293698128837
107	5.1233245255928574	2.352137073077193
108	8.570939029436383	2.3521295588695286
109	7.243452343464453	2.1888292955718307
110	3.9891181600267793	2.1886355087562532
111	2.4972793070879096	1.9374249414654152
112	4.789455357706139	1.9374313909263206
113	3.727031038757601	1.9374274936078308
114	6.748468958706447	2.1886404579522925
115	6.0242013027288674	1.9374309596016364
116	3.3564112802600636	1.7469870545801207
117	1.566586375233344	1.7469870545800619
118	3.652559807160725	1.9374837365657054
119	3.4406329658686756	1.937481753858604
120	3.6406179987751153	1.747013336447033
121	6.437542034785621	1.9374766358858184
122	2.182410047601225	1.41450340959411
123	2.1729242663326915	1.937479134553817
124	2.8565561401529393	1.9374761324986636
125	10.689568911156208	3.29988165011953
126	0.7520166278715752	1.0312323912782446
127	4.641645762400023	1.9374767449422616
128	6.671925778800993	1.937477046819424
129	31.759320428444262	5.646678814375062
130	7.055997592431738	2.351978591676801
131	0.8350049181298707	1.7470126652833513
132	9.137998319637386	3.299935428313562
133	1.4401217034470917	1.414503649578631
134	5.512483463422383	1.747012124149116
135	5.36240242024645	1.9374753463007162
136	3.6418397379078917	1.7470108141853646
137	2.3838148271105384	2.563654449722808
138	8.983899528311774	2.1887365307548703
139	5.7631759692974835	2.5636457310724237
140	3.6748229983912895	1.9374678166851638
141	3.5524455459913264	2.5636312766407023
142	5.358020409669235	1.9374720719631078
143	5.656796507161815	1.937464690750891
144	4.294075984408813	2.5636833290306575
145	7.595998353242058	1.937479916218014
146	4.436300991531095	1.9374552234710087
147	5.85642833934025	2.4699761826750954
148	14.242340215266381	4.315198158828897
149	5.121306088663071	1.9374569136073658
150	10.64554820386655	2.563604380737032
151	5.494539991820064	1.9374635651397891
152	6.313546984017446	1.9374564594092398
153	7.7065935677429565	2.3518932233967362
154	3.174120444969974	1.93745163957763
155	4.866627944743254	1.9374534144570064
156	4.764790474200974	2.015885041589371
157	2.452553558987376	1.9374092462657075
158	4.040538845669381	1.937409246265686
159	5.455503468390635	2.3517697935143134
160	6.578355096450337	1.937413668726762
161	5.89188474608838	1.9374477473171663
162	3.63855967849364	1.9374513469579826
163	4.819090627111129	1.7470039773042791
164	7.5172945150321535	1.9374578940814369
165	6.718003711258172	1.9374571553319324
166	3.4112345754086366	1.937457193566031
167	5.224993412589798	1.7470016732913487
168	3.558730301907625	1.937435118661694
169	4.190955040967891	1.9374288841464864
170	6.084758236063392	1.9374114445808241
171	3.876826090982121	1.7469766247067169
172	3.596822764246392	1.9374103947904153
173	2.758203987359378	1.9374103947904195
174	3.87877431200926	1.9374081450643394
175	5.658789017101413	1.7469859388790467
176	30.276455233378208	5.963951785383695
177	7.214853732581451	1.9374606073758605
178	3.7818654723644354	1.9374606073758704
179	1.5541138774952978	1.7470028721014594
180	4.081349218737442	1.937460607375765
181	6.551977795217258	1.9374606073759055
182	3.2905440381397444	1.9374609069010016
183	2.3626695712978	1.747004803076835
184	6.412548200755751	1.9375321691285308
185	5.086920563065239	1.937490256614318
186	2.2132345715187896	1.9374714697835362
187	2.2067511687063934	1.747002872101463
188	5.602848652740262	1.9374360680193587
189	5.377389293355833	1.937407284394368
190	5.491313811079477	1.9374041218169167
191	1.1646633551054735	1.7469889104983198
192	2.92671354831527	1.9375010222882227
193	5.640237316874055	1.937501022288095
194	3.750179612209196	1.9375077591996017
195	5.909389638995895	1.7470217710856333
196	3.456146550379218	1.937504493127908
197	3.987138168249631	1.9375267336139763
198	4.033452377326803	1.937526733613991
199	3.8364805863400018	1.7470305447901764
200	3.635263623035706	1.937513400597652
201	3.9823247145954452	1.9375123291168599
202	27.485573464666444	5.132466493459569
203	3.247888320291164	1.7470310894571044
204	5.325961592027613	2.5637273825709412
205	6.087521918875343	1.937506449611787
206	2.165620346038411	1.7470425930329954
207	5.253099115390586	2.3522273544242105
208	3.031220775831535	1.937561296683238
209	3.1407529709241535	1.9375343159715128
210	8.827512802028416	2.352152544293478
211	4.439930740624219	1.9375343159715421
212	4.616614796825758	2.352152567918524
213	5.233307449759399	1.9375343232728457
214	4.220470321129571	1.937534323272798
215	4.191716370958814	2.5639722534766998
216	3.9040640077363373	1.937534323272858
217	2.672124670275356	1.937534435376783
218	7.336178149451716	1.9375343643393663
219	10.767620799294239	2.6233486266191357
220	5.3515220943301065	1.9375346739437436
221	7.914358439741617	2.563977350017208
222	4.712100707518147	1.9375393478793899
223	6.847767393913931	2.563984722318003
224	5.502344021772305	1.9375342465045375
225	6.6243228679119985	2.352152544293686
226	1.8364191041782347	1.9375343232727973
227	2.708804851946603	2.1888620216603543
228	3.403097738620194	2.1888621129220605
229	3.059503171344679	2.188862166904617
230	2.9032578238299016	1.937534673944175
231	15.777198849565412	4.208577582456967
232	1.8777142016628123	1.93753610863348
233	6.918963192965812	2.189033193376764
234	3.4877535642651676	2.188978049468214
235	4.259339834286168	1.938088972508465
236	2.2776000437529733	1.9380889725084873
237	2.073588835386658	1.0312447782589844
238	1.8576902817321859	1.031247533515482
239	0.8339189708395709	1.031247533515494
240	3.554460901028813	1.031247533515486
241	3.188474843533158	1.9382160678826441
242	0.9233924567010471	1.0312473996250193
243	6.524287292069307	1.9382316843330007
244	2.815863312113261	1.938231765229804
245	2.325492492218647	1.031247120811456
246	37.21252017486862	5.772299872816975
247	3.4132266919757095	1.9382003172319697
248	3.4001753121055036	1.938200317231972
249	3.019864688585045	1.0312468709960612
250	6.478520051587222	1.9382045782614332
251	2.959858947318284	1.9382090051892027
252	27.61102845740978	5.19914897048771
253	5.303162008776702	1.9385997472260403
254	2.744617002219305	1.4146237264789434
255	4.457901067429347	1.9382809801974923
256	2.5384953614800754	1.9382809801974927
257	3.065838939276297	1.4146237264789543
258	5.383062197492172	1.9382809801974936
259	3.610203540184425	1.93827489238181
260	3.064412718462706	1.4146213710949433
261	2.053650504345612	1.938256639626161
262	4.066406002425683	1.414618752296282
263	3.938636437440059	1.9383538303001473
264	5.210595022773254	1.9383120770270965
265	4.3545538162250725	1.4146260746062236
266	4.0936725775181895	1.9382880640100166
267	5.149001308040033	1.9382872388113082
268	4.480488364592549	1.9382954466282514
269	0.9465012692115392	1.4146270347391443
270	7.283696634407205	1.9383030401878958
271	15.821522709814612	4.255284842583825
272	1.9518425689676597	1.7474511552321208
273	6.986646612766945	1.9382908626837243
274	7.525617390147266	1.9383190649623068
275	2.880365623284934	1.9383821744901493
276	6.888510121390631	1.9377755648716446
277	5.175895319510715	1.93777556487161
278	4.438640331208923	2.5651971403511924
279	4.052049246750948	1.937776381562721
280	4.384515730668453	1.9377763815627156
281	4.3423839116637515	1.9377763815627316
282	6.140447799261945	2.5651669876097216
283	7.182878482936205	1.9377728941284091
284	6.32334808645391	1.9377755648716428
285	4.428121836502386	2.5651930028723737
286	62.05057720587135	7.09226801021088
287	4.950467381799345	1.9377435116324675
288	9.042293280545664	2.564844552259192
289	5.31170026228872	1.9377798571059088
290	1.5230691051760088	1.9378211946371176
291	8.144981694608067	2.565409351893812
292	2.914140492182978	1.9378808021081302
293	6.936511865631785	1.9378215348350838
294	10.284996227126019	2.3530435883546676
295	6.352739611350302	1.937821690571694
296	4.666381836018401	1.9378233633256787
297	2.2007919585041074	2.3529388309592907
298	5.807476830210473	1.9377875196404064
299	2.27038283150915	1.938233762599098
300	4.591105493076953	2.3542360557254103
301	5.899506961262105	1.9382310488693317
302	5.767778185606316	1.9382748923818072
303	4.395027499035894	1.9382650911691404
304	8.54602479931762	2.190320358706067
305	1.9737847995378122	1.9382480276407283
306	2.16347043242223	1.9382390402511782
307	4.017922462633491	1.93827519856287
308	6.065238174665362	1.9382754448500443
309	2.12354483644437	1.9382755511497294
310	4.748145436042	1.74743888883552
311	6.52640435217428	1.938256303020046
312	2.6472187881830576	1.938248437282749
313	1.5045946208671206	1.4146178393703175
314	4.57783898917192	1.938244089093057
315	32.67673883116329	5.507961521330411
316	1.3098845407992208	1.747434075072189
317	4.483026881938877	1.938263176908506
318	5.196152325750663	1.9382466230484139
319	6.003972354686655	1.9382466230484117
320	7.923376638786442	2.435170985124757
321	6.9252158138519	1.938247712740307
322	3.4854691892895215	1.938249432232207
323	7.175773592140053	2.354349888894437
324	3.611656454204631	1.9382539811248958
325	7.334510961093976	1.9382443711607016
326	4.834958598181416	2.354265470851025
327	3.3446796660789784	1.9382481856237348
328	6.268070966209187	2.23541083492488
329	7.0272560437203895	1.9382489316402558
330	4.200536382873735	1.9382509897035927
331	7.875681537497117	2.190315446405321
332	4.146862997202374	1.9381855705531106
333	5.686363336566472	1.938178086957432
334	1.233173563202473	1.9381725926591327
335	7.567955014066962	1.9381645288066391
336	19.015391668318777	4.342476929287508
337	7.176996542789077	2.1898936245470435
338	6.490149412676754	1.9379872617500324
339	5.446944345203541	1.9379056780040451
340	4.976171127520544	2.353298756849237
341	4.234320807776115	1.9379073758529606
342	5.232583545932604	1.9378945942629073
343	3.633886411752567	1.937724886727963
344	6.432803980173006	2.5649367775416776
345	4.802183429711755	1.9377248867279664
346	5.616533101412269	1.937748477513887
347	6.7565233782867065	2.625316764603171
348	2.0946281902423394	1.937899948131135
349	7.563927407351045	1.9378945942628996
350	9.235368665577647	2.5657092116735587
351	3.5619475011866655	1.937810993610869
352	6.105520577903926	1.9377700474409432
353	2.6952231159705438	1.9377782565305552
354	6.309352965079064	2.3529114344236777
355	3.255036673225517	1.9377776143584715
356	2.955336267932963	1.9377700474409425
357	6.8383665046658635	2.016348850226207
358	4.830533774547162	1.937738905013455
359	6.475380286195632	1.9377344376163057
360	5.872013291612218	2.3528002830422756
361	3.966205357652261	1.9377702719170402
362	4.934000507123561	1.937766818052589
363	27.319966377256293	5.237961349069716
364	6.491946666112076	1.9376797381328317
365	4.884784754226528	1.9376742568923324
366	5.008143829825041	2.3525877160780353
367	2.9174814157729356	2.3525878259956507
368	5.228752688964953	1.9376742929406339
369	4.534004118820332	1.937674366802287
370	7.831397495257785	2.5646829302341794
371	6.3252477170257615	1.9376742489044803
372	3.8752459714229173	1.9376741905358013
373	2.9109948368119687	1.9376739520266366
374	10.3022643159668	2.56467624383814
375	4.977611092424448	1.9377486623210607
376	4.485278662683184	1.937747321782148
377	2.9431242621397606	2.3528442979301607
378	5.00652878902436	1.9377527161139592
379	6.518287364353192	2.3528138430996797
380	4.257703915251866	1.937726840621769
381	7.373256518995845	2.189135757071757
382	3.2339021183091843	1.9376703674256828
383	3.066133914122969	1.937687040269313
384	35.785146107596425	6.017537251852372
385	7.74647660721914	1.9377268406219386
386	4.2591512292478635	1.4145345299748433
387	4.610429667749376	1.9376995366416587
388	4.338247824195176	1.9377072383118017
389	2.31130388109446	1.7471348548928074
390	5.375643642603414	1.9377072383118
391	5.539786817776472	1.937707238311802
392	4.070143413867655	1.9377027752973863
393	3.751733585916086	2.3526778098577474
394	5.969469702413511	1.9377029742554908
395	5.227442833596676	1.9377032373049838
396	2.069363925450914	2.1892115132726517
397	6.390296142973666	1.93770431133716
398	13.466294457602057	3.9156320154154964
399	6.2242061287241786	1.9377043113371581
400	6.722626701086046	2.5644872079416223
401	5.4287792847490355	1.9376357281807735
402	2.6567674991597388	1.9376357281807721
403	8.216767855365989	2.352468806774237
404	1.9545125965908825	1.9376357281807712
405	6.514745649611731	1.9376357281807761
406	7.9264402216573595	2.189070630563404
408-A	0.12994399375920163	0.049984392064632885
408-B	0.060049841015172974	0.0499843920646846
409-A	0.11996891137197653	0.04998439206463289
409-B	0.09001868869385916	0.04998439206468461
410-A	0.080043613020214	0.049984392064632885
410-B	0.14991913060120698	0.04998439206468461
