[TITLE]
Scenario: Base 
Date: 2017/12/1 8:39:59 

[JUNCTIONS]
;ID              	Elev        	Demand      	Pattern         
 32              	902         	0.1         	                	;
 33              	909         	0.1         	                	;
 34              	909         	0.1         	                	;
 35              	892         	60.5576     	                	;
 36              	900         	0.1         	                	;
 37              	898         	0.1         	                	;
 38              	899         	0.1         	                	;
 39              	899         	0.1         	                	;
 40              	898.5       	0.1         	                	;
 41              	892         	0.1         	                	;
 42              	893         	0.1         	                	;
 43              	893         	0.1         	                	;
 44              	892         	0.1         	                	;
 45              	894         	0.1         	                	;
 46              	895         	0.1         	                	;
 47              	898         	0.1         	                	;
 48              	897         	0.1         	                	;
 49              	899         	0.1         	                	;
 50              	899         	0.1         	                	;
 51              	897.5       	0.1         	                	;
 52              	897.5       	0.1         	                	;
 53              	897.5       	0.1         	                	;
 54              	897.5       	0.1         	                	;
 55              	897.5       	0.1         	                	;
 56              	897.5       	0.1         	                	;
 57              	897         	0.1         	                	;
 58              	897         	0.1         	                	;
 59              	891         	0.1         	                	;
 60              	891         	0.1         	                	;
 61              	891         	0.1         	                	;
 62              	891         	0.1         	                	;
 63              	890         	0.1         	                	;
 64              	890.5       	0.1         	                	;
 65              	891         	0.1         	                	;
 66              	891         	0.1         	                	;
 67              	890.5       	0.1         	                	;
 68              	890.5       	0.1         	                	;
 69              	890.5       	0.1         	                	;
 70              	891         	0.1         	                	;
 71              	892         	0.1         	                	;
 72              	891         	0.1         	                	;
 73              	892         	0.1         	                	;
 74              	892         	0.1         	                	;
 75              	892         	0.1         	                	;
 76              	891         	0.1         	                	;
 77              	891         	0.1         	                	;
 78              	889         	0.1         	                	;
 79              	888         	0.1         	                	;
 80              	888.5       	0.1         	                	;
 81              	888.5       	0.1         	                	;
 82              	888.5       	0.1         	                	;
 83              	888.5       	0.1         	                	;
 84              	888.5       	0.1         	                	;
 85              	888         	0.1         	                	;
 86              	889         	0.1         	                	;
 87              	887         	0.1         	                	;
 88              	890         	0.1         	                	;
 89              	890         	0.1         	                	;
 90              	890         	0.1         	                	;
 91              	890         	0.1         	                	;
 92              	900         	5.796       	                	;
 93              	900         	1.251936    	                	;
 94              	900         	1.251936    	                	;
 95              	895         	1.251936    	                	;
 96              	895         	6.4552      	                	;
 97              	900         	1.251936    	                	;
 98              	900         	2.503872    	                	;
 99              	898         	2.503872    	                	;
 100             	897         	5.796       	                	;
 101             	897         	7.7616      	                	;
 102             	897         	7.7616      	                	;
 103             	897         	37.197      	                	;
 104             	897         	6.9552      	                	;
 105             	897         	6.9552      	                	;
 106             	899         	5.796       	                	;
 107             	898         	7.7616      	                	;
 108             	898         	7.7616      	                	;
 109             	899         	6.9552      	                	;
 110             	898.5       	6.9552      	                	;
 111             	899         	5.796       	                	;
 112             	900         	5.796       	                	;
 113             	900         	5.796       	                	;
 114             	899.5       	6.9552      	                	;
 115             	899         	5.796       	                	;
 116             	899         	5.007744    	                	;
 117             	899         	5.007744    	                	;
 118             	895         	5.796       	                	;
 119             	895         	5.796       	                	;
 120             	895         	5.007744    	                	;
 121             	895         	5.796       	                	;
 122             	895         	3.755808    	                	;
 123             	892         	5.796       	                	;
 124             	894         	5.796       	                	;
 125             	894.5       	13.3056     	                	;
 126             	895         	2.503872    	                	;
 127             	895         	5.796       	                	;
 128             	894         	5.796       	                	;
 129             	893         	36.004      	                	;
 130             	893         	7.7616      	                	;
 131             	893         	5.007744    	                	;
 132             	893         	13.3056     	                	;
 133             	893         	3.755808    	                	;
 134             	894         	5.007744    	                	;
 135             	894.5       	5.796       	                	;
 136             	894         	5.007744    	                	;
 137             	896         	8.8704      	                	;
 138             	895.5       	6.9552      	                	;
 139             	897         	8.8704      	                	;
 140             	897         	5.796       	                	;
 141             	897         	8.8704      	                	;
 142             	896         	5.796       	                	;
 143             	897         	5.796       	                	;
 144             	893         	8.8704      	                	;
 145             	894         	5.796       	                	;
 146             	898.5       	5.796       	                	;
 147             	898.5       	8.3704      	                	;
 148             	898         	21.15       	                	;
 149             	898.5       	5.796       	                	;
 150             	898         	8.8704      	                	;
 151             	898         	5.796       	                	;
 152             	899         	5.796       	                	;
 153             	899         	7.7616      	                	;
 154             	899         	5.796       	                	;
 155             	899         	5.796       	                	;
 156             	899         	6.1552      	                	;
 157             	899         	5.796       	                	;
 158             	899.5       	5.796       	                	;
 159             	899.5       	7.7616      	                	;
 160             	899.5       	5.796       	                	;
 161             	899.5       	5.796       	                	;
 162             	899         	5.796       	                	;
 163             	898         	5.007744    	                	;
 164             	898         	5.796       	                	;
 165             	898         	5.796       	                	;
 166             	898.5       	5.796       	                	;
 167             	897         	5.007744    	                	;
 168             	896         	5.796       	                	;
 169             	899         	5.796       	                	;
 170             	898         	5.796       	                	;
 171             	898         	5.007744    	                	;
 172             	897         	5.796       	                	;
 173             	899         	5.796       	                	;
 174             	901         	5.796       	                	;
 175             	899         	5.007744    	                	;
 176             	897         	41.13       	                	;
 177             	898         	5.796       	                	;
 178             	899         	5.796       	                	;
 179             	898.5       	5.007744    	                	;
 180             	898         	5.796       	                	;
 181             	898.5       	5.796       	                	;
 182             	897         	5.796       	                	;
 183             	897         	5.007744    	                	;
 184             	892         	5.796       	                	;
 185             	896         	5.796       	                	;
 186             	897         	5.796       	                	;
 187             	897         	5.007744    	                	;
 188             	900         	5.796       	                	;
 189             	903         	5.796       	                	;
 190             	902         	5.796       	                	;
 191             	901         	5.007744    	                	;
 192             	899         	5.796       	                	;
 193             	899         	5.796       	                	;
 194             	899         	5.796       	                	;
 195             	899         	5.007744    	                	;
 196             	899         	5.796       	                	;
 197             	899         	5.796       	                	;
 198             	899         	5.796       	                	;
 199             	899         	5.007744    	                	;
 200             	899         	5.796       	                	;
 201             	899         	5.796       	                	;
 202             	899         	29.34       	                	;
 203             	899         	5.007744    	                	;
 204             	900         	8.8704      	                	;
 205             	899         	5.796       	                	;
 206             	899         	5.007744    	                	;
 207             	892         	7.7616      	                	;
 208             	892         	5.796       	                	;
 209             	898         	5.796       	                	;
 210             	898         	7.7616      	                	;
 211             	898         	5.796       	                	;
 212             	898         	7.7616      	                	;
 213             	898         	5.796       	                	;
 214             	898         	5.796       	                	;
 215             	898         	8.8704      	                	;
 216             	898         	5.796       	                	;
 217             	899         	5.796       	                	;
 218             	898         	5.796       	                	;
 219             	899         	9.192       	                	;
 220             	899         	5.796       	                	;
 221             	899         	8.8704      	                	;
 222             	897         	5.796       	                	;
 223             	897         	8.8704      	                	;
 224             	898         	5.796       	                	;
 225             	898         	7.7616      	                	;
 226             	898         	5.796       	                	;
 227             	898         	6.9552      	                	;
 228             	899         	6.9552      	                	;
 229             	899         	6.9552      	                	;
 230             	899         	5.796       	                	;
 231             	899         	20.16       	                	;
 232             	899         	5.796       	                	;
 233             	895         	6.9552      	                	;
 234             	895         	6.9552      	                	;
 235             	885         	5.796       	                	;
 236             	885         	5.796       	                	;
 237             	885         	2.503872    	                	;
 238             	887.5       	2.503872    	                	;
 239             	887.5       	2.503872    	                	;
 240             	887.5       	2.503872    	                	;
 241             	887.5       	5.796       	                	;
 242             	887.5       	2.503872    	                	;
 243             	887.5       	5.796       	                	;
 244             	888         	5.796       	                	;
 245             	887.5       	2.503872    	                	;
 246             	887         	35.4816     	                	;
 247             	887         	5.796       	                	;
 248             	887         	5.796       	                	;
 249             	887         	2.503872    	                	;
 250             	887.5       	5.796       	                	;
 251             	887.5       	5.796       	                	;
 252             	887.5       	28.89       	                	;
 253             	889         	5.796       	                	;
 254             	890         	3.755808    	                	;
 255             	889         	5.796       	                	;
 256             	889         	5.796       	                	;
 257             	889         	3.755808    	                	;
 258             	888.5       	5.796       	                	;
 259             	888.5       	5.796       	                	;
 260             	888.5       	3.755808    	                	;
 261             	888         	5.796       	                	;
 262             	888         	3.755808    	                	;
 263             	890         	5.796       	                	;
 264             	889.5       	5.796       	                	;
 265             	889.5       	3.755808    	                	;
 266             	889         	5.796       	                	;
 267             	889         	5.796       	                	;
 268             	889.5       	5.796       	                	;
 269             	889.5       	3.755808    	                	;
 270             	889.5       	5.796       	                	;
 271             	889.5       	20.16       	                	;
 272             	889         	5.007744    	                	;
 273             	889         	5.796       	                	;
 274             	889         	5.796       	                	;
 275             	890         	5.796       	                	;
 276             	892         	5.796       	                	;
 277             	892         	5.796       	                	;
 278             	891         	8.8704      	                	;
 279             	891         	5.796       	                	;
 280             	891         	5.796       	                	;
 281             	890         	5.796       	                	;
 282             	891         	8.8704      	                	;
 283             	891         	5.796       	                	;
 284             	893         	5.796       	                	;
 285             	891.5       	8.8704      	                	;
 286             	890         	60.66       	                	;
 287             	891         	5.796       	                	;
 288             	892         	8.8704      	                	;
 289             	891         	5.796       	                	;
 290             	892         	5.796       	                	;
 291             	891         	8.8704      	                	;
 292             	890.5       	5.796       	                	;
 293             	892         	5.796       	                	;
 294             	892         	7.7616      	                	;
 295             	892         	5.796       	                	;
 296             	891         	5.796       	                	;
 297             	891         	7.7616      	                	;
 298             	892         	5.796       	                	;
 299             	888         	5.796       	                	;
 300             	888         	7.7616      	                	;
 301             	888         	5.796       	                	;
 302             	888.5       	5.796       	                	;
 303             	888.5       	5.796       	                	;
 304             	888         	6.9552      	                	;
 305             	888         	5.796       	                	;
 306             	888         	5.796       	                	;
 307             	889         	5.796       	                	;
 308             	888.5       	5.796       	                	;
 309             	888.5       	5.796       	                	;
 310             	888         	5.007744    	                	;
 311             	888         	5.796       	                	;
 312             	888         	5.796       	                	;
 313             	888         	3.755808    	                	;
 314             	888         	5.796       	                	;
 315             	888         	32.13       	                	;
 316             	888         	5.007744    	                	;
 317             	888.5       	5.796       	                	;
 318             	889         	5.796       	                	;
 319             	889         	5.796       	                	;
 320             	889         	8.1704      	                	;
 321             	888.5       	5.796       	                	;
 322             	888.5       	5.796       	                	;
 323             	889         	7.7616      	                	;
 324             	888.5       	5.796       	                	;
 325             	889         	5.796       	                	;
 326             	889         	7.7616      	                	;
 327             	889         	5.796       	                	;
 328             	889         	7.1616      	                	;
 329             	889         	5.796       	                	;
 330             	889         	5.796       	                	;
 331             	889         	6.9552      	                	;
 332             	889         	5.796       	                	;
 333             	889         	5.796       	                	;
 334             	889         	5.796       	                	;
 335             	889         	5.796       	                	;
 336             	890         	21.06       	                	;
 337             	890         	6.9552      	                	;
 338             	890         	5.796       	                	;
 339             	890         	5.796       	                	;
 340             	890         	7.7616      	                	;
 341             	890.5       	5.796       	                	;
 342             	890.5       	5.796       	                	;
 343             	890.5       	5.796       	                	;
 344             	891         	8.8704      	                	;
 345             	891         	5.796       	                	;
 346             	891         	5.796       	                	;
 347             	890.5       	9.1792      	                	;
 348             	890.5       	5.796       	                	;
 349             	890.5       	5.796       	                	;
 350             	890.5       	8.8704      	                	;
 351             	891         	5.796       	                	;
 352             	892         	5.796       	                	;
 353             	893         	5.796       	                	;
 354             	893         	7.7616      	                	;
 355             	893         	5.796       	                	;
 356             	892         	5.796       	                	;
 357             	892         	6.1552      	                	;
 358             	892         	5.796       	                	;
 359             	892         	5.796       	                	;
 360             	892         	7.7616      	                	;
 361             	892         	5.796       	                	;
 362             	892         	5.796       	                	;
 363             	892         	30.15       	                	;
 364             	892         	5.796       	                	;
 365             	893         	5.796       	                	;
 366             	893         	7.7616      	                	;
 367             	893         	7.7616      	                	;
 368             	893         	5.796       	                	;
 369             	893         	5.796       	                	;
 370             	893         	8.8704      	                	;
 371             	893         	5.796       	                	;
 372             	893         	5.796       	                	;
 373             	893         	5.796       	                	;
 374             	893         	8.8704      	                	;
 375             	892         	5.796       	                	;
 376             	892         	5.796       	                	;
 377             	892         	7.7616      	                	;
 378             	892         	5.796       	                	;
 379             	893         	7.7616      	                	;
 380             	893         	5.796       	                	;
 381             	893.5       	6.9552      	                	;
 382             	893         	5.796       	                	;
 383             	893.5       	5.796       	                	;
 384             	893         	40.23       	                	;
 385             	893         	5.796       	                	;
 386             	893.5       	3.755808    	                	;
 387             	893.5       	5.796       	                	;
 388             	893         	5.796       	                	;
 389             	892         	5.007744    	                	;
 390             	892         	5.796       	                	;
 391             	892         	5.796       	                	;
 392             	893         	5.796       	                	;
 393             	894         	7.7616      	                	;
 394             	894         	5.796       	                	;
 395             	893         	5.796       	                	;
 396             	894         	6.9552      	                	;
 397             	893         	5.796       	                	;
 398             	893         	17.703      	                	;
 399             	893         	5.796       	                	;
 400             	893         	8.8704      	                	;
 401             	897         	5.796       	                	;
 402             	897         	5.796       	                	;
 403             	896         	7.7616      	                	;
 404             	896         	5.796       	                	;
 405             	896         	5.796       	                	;
 406             	897         	6.9552      	                	;
 408-A           	909         	0.1         	                	;
 408-B           	909         	0.1         	                	;
 409-A           	909         	0.1         	                	;
 409-B           	909         	0.1         	                	;
 410-A           	909         	0.1         	                	;
 410-B           	909         	0.1         	                	;

[RESERVOIRS]
;ID              	Head        	Pattern         
 407             	912         	                	;

[TANKS]
;ID              	Elevation   	InitLevel   	MinLevel    	MaxLevel    	Diameter    	MinVol      	VolCurve
 882             	925         	50          	40          	70          	35          	0.1         	                	;

[PIPES]
;ID              	Node1           	Node2           	Length      	Diameter    	Roughness   	MinorLoss   	Status
 411             	32              	189             	348         	16          	120         	0           	Open  	;
 412             	190             	32              	105         	16          	120         	0           	Open  	;
 413             	408-B           	33              	30          	24          	130         	0           	Open  	;
 414             	34              	408-A           	30          	24          	130         	0           	Open  	;
 415             	409-B           	33              	30          	24          	130         	0           	Open  	;
 416             	34              	409-A           	30          	24          	130         	0           	Open  	;
 417             	33              	410-B           	30          	24          	130         	0           	Open  	;
 418             	32              	33              	759         	24          	130         	0           	Open  	;
 419             	34              	407             	30          	24          	130         	0           	Open  	;
 420             	410-A           	34              	30          	24          	130         	0           	Open  	;
 421             	35              	208             	1404        	16          	120         	0           	Open  	;
 422             	364             	35              	591         	16          	120         	0           	Open  	;
 423             	38              	36              	2838        	6           	110         	0           	Open  	;
 424             	38              	37              	432         	6           	110         	0           	Open  	;
 425             	155             	38              	126         	6           	110         	0           	Open  	;
 426             	40              	39              	231         	6           	110         	0           	Open  	;
 427             	40              	163             	252         	6           	110         	0           	Open  	;
 428             	151             	40              	375         	6           	110         	0           	Open  	;
 429             	44              	41              	228         	6           	110         	0           	Open  	;
 430             	41              	131             	84          	6           	110         	0           	Open  	;
 431             	123             	41              	297         	6           	110         	0           	Open  	;
 432             	42              	43              	300         	6           	110         	0           	Open  	;
 433             	43              	42              	417         	6           	110         	0           	Open  	;
 434             	44              	43              	267         	6           	110         	0           	Open  	;
 435             	44              	123             	126         	6           	110         	0           	Open  	;
 436             	145             	44              	270         	6           	110         	0           	Open  	;
 437             	46              	45              	507         	6           	110         	0           	Open  	;
 438             	46              	145             	282         	6           	110         	0           	Open  	;
 439             	185             	46              	474         	6           	110         	0           	Open  	;
 440             	48              	47              	237         	6           	110         	0           	Open  	;
 441             	48              	185             	291         	16          	120         	0           	Open  	;
 442             	186             	48              	342         	16          	120         	0           	Open  	;
 443             	50              	49              	282         	6           	110         	0           	Open  	;
 444             	50              	109             	450         	16          	120         	0           	Open  	;
 445             	205             	50              	240         	16          	120         	0           	Open  	;
 446             	57              	51              	486         	6           	110         	0           	Open  	;
 447             	53              	52              	102         	6           	110         	0           	Open  	;
 448             	53              	54              	303         	6           	110         	0           	Open  	;
 449             	56              	53              	63          	6           	110         	0           	Open  	;
 450             	56              	55              	90          	6           	110         	0           	Open  	;
 451             	57              	56              	246         	6           	110         	0           	Open  	;
 452             	58              	57              	171         	6           	110         	0           	Open  	;
 453             	58              	222             	60          	16          	120         	0           	Open  	;
 454             	102             	58              	384         	16          	120         	0           	Open  	;
 455             	60              	61              	189         	6           	110         	0           	Open  	;
 456             	60              	59              	57          	6           	110         	0           	Open  	;
 457             	61              	60              	510         	6           	110         	0           	Open  	;