[TANK]
407	-2028.49	5.0
[JUNCTIONS]
53	35.87	0.3728684813891475
65	37.72	0.3530099132407425
111	35.71	0.3894565931236399
154	35.14	0.32223467805581874
158	35.67	0.3362443064416087
229	35.1	0.3569577473566357
234	36.4	0.3242701390031547
236	39.91	0.5773350928004736
340	38.33	0.4224672293992036
381	36.63	0.4091591595242058
[PIPES]
[JUNDEMANDS]
32	0.020076194455825352	0.04998439206468503
33	0.08003261740402816	0.04998439206468443
34	0.15991414891184794	0.04998439206463383
35	58.47036653228295	6.9911921729661195
36	0.09009128372059988	0.049984392064686044
37	0.1000254934346249	0.04998439206468604
38	0.08010080868830251	0.04998439206468602
39	0.05005327375722102	0.049984392064686245
40	0.11998913703247607	0.049984392064686245
41	0.04006592932522727	0.04998439206468656
42	0.010011935546283567	0.04998439206468656
43	0.020028874377972065	0.04998439206468658
44	0.13998965151892787	0.049984392064686536
45	0.00010781951918350198	0.049984392064686654
46	0.05003975956720171	0.04998439206468665
47	0.06996628697705155	0.049984392064686606
48	0.04006412534018766	0.04998439206468663
49	0.04005415061126135	0.04998439206468709
50	0.02004108131374172	0.04998439206468708
51	0.11998905101432289	0.04998439206468759
52	7.60597914918948e-05	0.04998439206468757
53	0.02008221397087628	0.04998439206468758
54	0.09004198112244452	0.04998439206468759
55	0.0800445735127313	0.04998439206468757
56	0.12993159219296652	0.04998439206468758
57	0.11994018333243987	0.04998439206468757
58	0.06997892179841274	0.04998439206468759
59	0.05997573677091036	0.04998439206469279
60	0.15998733415617475	0.04998439206469276
61	0.020077646296725423	0.049984392064692774
62	0.14998128795780113	0.04998439206469279
63	0.15997456448391237	0.04998439206469278
64	0.0700236508598685	0.04998439206469207
65	0.12002251290463313	0.04998439206469207
66	0.05006972485611326	0.04998439206469364
67	0.06001634589725995	0.04998439206469359
68	0.0900450518986345	0.049984392064693586
69	0.030022702270943308	0.04998439206469353
70	0.05004157628202095	0.04998439206469364
71	0.04998955384033515	0.04998439206469371
72	0.12993518305765947	0.04998439206469377
73	0.09000969557060692	0.04998439206469377
74	0.050004880344768896	0.04998439206469377
75	0.13996568567770656	0.04998439206469393
76	0.11997163786245234	0.0499843920646943
77	0.0800051474721222	0.04998439206469468
78	0.06006639704222835	0.04998439206470083
79	2.7132986588571395e-05	0.04998439206470082
80	0.13995972846494456	0.04998439206470083
81	0.04997031710877229	0.04998439206470082
82	0.03004412113159936	0.04998439206470083
83	0.149960176033487	0.04998439206470085
84	0.0899939912772479	0.04998439206470083
85	0.1000361716940466	0.04998439206470083
86	0.14999274907765253	0.04998439206470084
87	0.0499983333495126	0.04998439206470084
88	0.01002904551141367	0.04998439206470128
89	0.02009551681864462	0.049984392064701275
90	0.08999264537068197	0.049984392064701275
91	0.030069357014078105	0.04998439206470128
92	6.57632034288584	1.9374443658418132
93	0.2884753518571971	0.5586204955862191
94	0.8683731063892121	0.5586204955862201
95	1.1491181589528674	0.5586205497031032
96	4.931726147380849	2.0826936554847855
97	1.464465897138141	0.5586205286834875
98	2.504261488492228	1.0312336411511644
99	1.8129799227008676	1.0312336411511713
100	5.470356942415806	1.9375394259747492
101	6.906460329860954	2.3521724535085378
102	7.336861023474204	2.3521794235161346
103	35.289667575476656	5.7485282912293
104	3.9582252821895296	2.188872556446778
105	6.465061540043754	2.1888693582203698
106	5.72010060143299	1.9375262577346022
107	1.9411793434046993	2.352130323910844
108	4.658786087367495	2.352122784417938
109	4.857799543483107	2.18882408284872
110	6.855316004395066	2.1886402794633035
111	3.5970410485445754	1.9374262098830217
112	5.632070086221807	1.9374303405350846
113	1.9204761250828497	1.9374265920178821
114	3.7094840516327445	2.1886435236743167
115	3.597816571034419	1.93742712451782
116	2.255071504980291	1.7469845321325734
117	2.0224742822125243	1.7469845321324715
118	6.259206503210852	1.9374826571543478
119	3.885442331734175	1.9374804932565322
120	5.45516490477396	1.7470121256302984
121	5.5320200136849405	1.9374744887329949
122	2.4549890150403746	1.4145027895959887
123	5.725064679376989	1.9374773496418884
124	4.294552985168548	1.9374739884322307
125	15.508580974461989	3.299897568552094
126	2.6915556679582213	1.031232279876562
127	7.746212381631899	1.937474682487425
128	6.386918527732757	1.9374749872960206
129	36.885685484651006	5.647013979959085
130	6.74571945441238	2.351976977287629
131	5.424954181775966	1.7470112775099853
132	15.01750928163523	3.2999578005042416
133	1.5554361973725555	1.414503058402829
134	3.878252136723961	1.7470106778002035
135	5.544811236619456	1.937473062115654
136	3.9534782582699872	1.7470091858040193
137	5.372144627434189	2.563649459930704
138	3.3052173655164756	2.188733230614231
139	6.634652335180028	2.5636422206358658
140	7.108035116517373	1.9374642863115121
141	7.5022126667264235	2.563623733117152
142	4.790563922504061	1.9374692666072588
143	6.431234222719925	1.9374606146142428
144	11.55436252509848	2.5636831534882183
145	2.3127302758075827	1.9374782762241733
146	3.311184848338931	1.937451803766234
147	7.343161062665054	2.469968951502092
148	18.4347862561201	4.315221461890835
149	4.47287419561286	1.9374529552744457
150	6.175141456698304	2.5635987308557002
151	4.320142846510046	1.9374595145277616
152	4.237092466809471	1.937451035530492
153	5.552094268502113	2.3518791838383213
154	6.227504641278449	1.9374454117342943
155	4.235661935264801	1.9374479529131854
156	3.306759923483126	2.0158785065995164
157	3.2976505549724546	1.9374036990676533
158	6.943027903667676	1.937403699067674
159	7.8260796773042145	2.3517622814958847
160	1.6056240925986334	1.9374095552783306
161	5.847387943413219	1.9374443658418101
162	2.0976502072999064	1.9374479518662704
163	4.483346722906348	1.7470019045178293
164	6.253235672655814	1.9374545775040033
165	3.092201577079686	1.9374539692020878
166	5.9368678897230005	1.937453972350368
167	3.8146353341828334	1.7469997317322794
168	5.40713736494905	1.9374317629431368
169	6.481013177784712	1.9374256731893658
170	4.545496940974742	1.9374080993684355
171	2.861553663095684	1.7469743340025954
172	3.085666837670942	1.9374075245726374
173	4.8084862164180615	1.9374075245726323
174	4.858219674476059	1.937405722571504
175	3.0389050437746916	1.7469836906543281
176	23.461423941416903	5.9647256106590065
177	6.87859717835552	1.937459147489703
178	6.871719451739045	1.9374591474896852
179	5.075769461612369	1.7470016628260805
180	2.1680421983891396	1.9374591474895946
181	3.096419221238817	1.937459147489702
182	5.652803078039694	1.9374579254229423
183	3.0531673531766277	1.747002820958375
184	4.723525585880325	1.9375303174259801
185	3.7351748330858072	1.9374896103061727
186	3.242541586342767	1.937470289442123
187	3.1031992790626552	1.7470016628260785
188	4.357597684608337	1.9374341040844392
189	5.1594430036575645	1.937404944793706
190	5.830937125117979	1.937401706737934
191	4.004299662869131	1.7469869917375191
192	4.622908826303273	1.9374977935196664
193	5.29006371408269	1.9374977935196938
194	2.390659503459258	1.9375045379229108
195	4.341673995556506	1.74701970854349
196	5.478088740829895	1.9375012243800724
197	3.3252627294231116	1.9375238393394374
198	5.301990964863939	1.9375238393393874
199	1.3682498898174842	1.7470285732428357
200	3.9452418117613064	1.9375103223747292
201	6.419653512065723	1.9375092147756914
202	23.678387503465252	5.132525664594995
203	2.1248002232200567	1.7470290271005484
204	2.8082655407841948	2.56372004464201
205	5.516464651166325	1.9375032234355007
206	5.34476343782453	1.7470406523843405
207	2.875693955731429	2.352221740975942
208	4.939830127699698	1.9375587062643218
209	3.4147493634048245	1.9375312756765053
210	6.285541609549566	2.3521458724625894
211	3.953896772527454	1.9375312756764893
212	7.133994626961547	2.3521458924793683
213	3.9335044720789494	1.9375312832252354
214	4.234832336076111	1.937531283225208
215	4.742366377335717	2.563963203560022
216	3.7389020187068533	1.9375312832252134
217	4.766258977331517	1.9375313353046786
218	6.631494053312213	1.9375313038542281
219	9.513914927236401	2.623338582603784
220	4.3185169938925	1.9375315530617832
221	9.798672324644427	2.563968035295985
222	2.921216833512713	1.9375365487930232
223	6.709795292739128	2.563976271497362
224	2.7991092668619997	1.9375312330064458
225	2.8475709119224666	2.3521458724626303
226	3.40590349914571	1.9375312832252707
227	4.052756233836456	2.1888569112323433
228	7.157520893612578	2.188856950433737
229	6.572922556692547	2.1888569726295595
230	4.259494721414066	1.9375315530618504
231	10.505756350915622	4.208547944424742
232	4.4184609380140705	1.937532950984568
233	8.292097500691813	2.1890260920583655
234	5.604309207681261	2.1889694606293024
235	4.934647631787611	1.9381039197162202
236	6.300880817493153	1.9381039197162842
237	1.274288536783621	1.0312451745190028
238	1.5926902109937062	1.031248424655214
239	0.3291675695337045	1.0312484246552132
240	0.7564887156984681	1.0312484246552134
241	4.359159032193703	1.9382532907612318
242	1.881344085390293	1.0312483202337595
243	7.355634593932513	1.938265475163596
244	2.7160933511877396	1.9382655078627686
245	1.1300774240217881	1.0312481045278383
246	40.74642324426752	5.7853018773901494
247	5.429909293620183	1.9382409659917805
248	2.141813115045436	1.938240965991775
249	3.3574966750243096	1.0312479054465344
250	3.096501187203084	1.9382442849817478
251	4.712742821832178	1.9382476600712553
252	31.883619746660322	5.205074424437029
253	2.43601901831022	1.9386009806783173
254	4.178787182846696	1.4146283168177343
255	3.543569100510168	1.9383059489353052
256	6.304958743054107	1.9383059489353136
257	2.0584151833648825	1.4146283168177343
258	3.3730673871599386	1.9383059489352996
259	5.833065440872157	1.9383008777698427
260	1.8468180578953877	1.4146263200073228
261	6.183968754172271	1.9382853056947802
262	2.2443021830673953	1.414624105363019
263	4.562544436314778	1.938374410464042
264	6.618881583430444	1.9383343905016006
265	1.9676076397292457	1.414630399228307
266	4.319675671173478	1.9383124502096856
267	5.039330051383038	1.938311584722144
268	4.854592873481518	1.9383185670104117
269	2.045732586847825	1.4146312740530558
270	3.646542006232565	1.9383256421654078
271	23.186537198462453	4.256334942179277
272	4.868198782406595	1.74746539724229
273	5.7115604545755865	1.938315378068505
274	3.8543409487179483	1.9383416600586212
275	8.035842536479493	1.9384013298482232
276	1.4779321849175644	1.9377730875297945
277	7.4288563159798695	1.9377730875297812
278	2.677386451281265	2.5651806535290347
279	3.5739587273800657	1.9377739601204476
280	6.754238950235871	1.9377739601204451
281	2.832908355365687	1.937773960120443
282	4.978116760607855	2.5651498234189654
283	6.655257903973338	1.937770312212379
284	3.351352945419437	1.9377730875297852
285	4.9950077225755365	2.5651763661800326
286	63.976053407862594	7.090599947546875
287	3.8880995850918634	1.9377407742876545
288	8.060906669902309	2.5648292122598093
289	3.307835370951375	1.9377774485239065
290	4.57325525595683	1.9378203567054673
291	3.9907130463427434	2.5653950179267104
292	6.410780526262501	1.9378817610168142
293	3.951426130338321	1.9378207561335818
294	7.982416773209315	2.3530384338157995
295	6.643913767152837	1.9378209400580857
296	4.730934918952939	1.9378232838417626
297	5.0487318324112085	2.352937047469229
298	5.404593243551064	1.937787642095539
299	4.993171548987302	1.938266736957601
300	6.451616612398222	2.354335407118295
301	5.901859722208263	1.9382649395334803
302	4.939707386502984	1.9383008777695723
303	6.603490833184649	1.9382925132778952
304	7.809402559102372	2.1903743708079806
305	3.1377290747649957	1.9382781113637761
306	0.9545814251043694	1.9382710645363528
307	5.6632845776117815	1.9383011027306083
308	2.3695241671652205	1.9383012680141198
309	5.7549623123616165	1.9383014521527926
310	2.902923967023905	1.747454724075336
311	4.842151221557446	1.9382849131254491
312	5.93512766905816	1.9382784137691842
313	4.896018011205604	1.4146233773246086
314	3.011055737151734	1.9382748251881101
315	35.72465765016901	5.5139230320786075
316	5.255768738864801	1.747450491054747
317	4.3631477213193826	1.9382903815543615
318	4.384718902617167	1.9382747620250975
319	2.2839489143982497	1.9382747620251422
320	6.022568524646084	2.435261522801571
321	2.6313347749842815	1.9382772767389451
322	6.478280235464334	1.9382785391762962
323	6.667132316695778	2.3544229311816194
324	4.949888712374811	1.9382821564039092
325	4.071292906621108	1.9382720505421507
326	6.9953368405362175	2.3543385742447667
327	6.619610425799915	1.938277412815422
328	6.578979883800701	2.2354720566978488
329	3.0329392009608984	1.9382775957423877
330	4.379531990857819	1.9382788261385158
331	7.636865264200395	2.1903659633673387
332	3.739188138505744	1.9382120710455568
333	2.1331274939081277	1.9382046190610354
334	5.107084988968891	1.9381992980633291
335	7.114906777479518	1.9381907686230715
336	22.97548774297599	4.344120316824669
337	2.276034815723343	2.1899396328266314
338	3.708441705612972	1.938012565317011
339	3.1273858458954704	1.9379325961780502
340	5.68200472097777	2.353375007276841
341	5.859223246978718	1.9379246429182921
342	5.242224853276085	1.937905358599765
343	2.44555979288978	1.937722520367729
344	7.923133403289084	2.5649226211403273
345	6.030097296265028	1.9377225203677275
346	6.517529262542863	1.9377472132235682
347	5.846085809955825	2.6254000377646967
348	7.897326912678426	1.937912688008815
349	4.760389991149424	1.9379053585997146
350	9.364688583619966	2.5657373808879687
351	3.1376756422021796	1.9378120529818712
352	5.277813312853375	1.9377700914042653
353	2.9030793566578312	1.9377768544249194
354	8.74962130171725	2.352904984386149
355	4.103084156038202	1.9377764152381292
356	5.095685603394671	1.937770091404268
357	5.609440659450174	2.016348650419662
358	2.951425330251565	1.9377378845177535
359	2.8612862993661317	1.9377344648463248
360	8.023405501798788	2.352798588845072
361	5.122285950137479	1.9377711376048377
362	3.391276746340627	1.9377672525456113
363	28.34499468428072	5.237677570538232
364	5.331658112708936	1.9376771444971788
365	2.508752349708149	1.9376722728805764
366	5.277070119429266	2.352581560177933
367	8.966105818121527	2.352581638609799
368	5.760288627267631	1.937672299150547
369	5.398881834151905	1.9376723584482973
370	5.744904692068761	2.5646727988417077
371	2.0010353245911747	1.9376723043594433
372	3.3630202387425605	1.9376722237523438
373	4.262770236325481	1.937671968483318
374	7.0967784152433895	2.564666440562431
375	5.8965657402889935	1.9377523312115024
376	5.297554524034073	1.9377503078866305
377	9.11775750489105	2.352855985257758
378	5.708230531394257	1.9377564241457075
379	5.124337631023462	2.352823667135942
380	5.34801585820038	1.937733971019135
381	7.583225937684296	2.1891732507195614
382	3.516088326580408	1.9376686570967672
383	4.646440544371564	1.9376885672336515
384	44.339568465694114	6.018359434212786
385	3.961356645011297	1.9377339710191352
386	3.303951125647973	1.4145366187579516
387	4.524846270732231	1.9377068658931074
388	2.856540762308065	1.9377068640249495
389	6.027764071634236	1.7471346901916969
390	4.71762104297923	1.9377068640250037
391	3.4775673547255463	1.9377068640250121
392	6.936484198649685	1.9377074090660307
393	3.5170858657586948	2.3526916716022823
394	4.249381961484193	1.9377074401347125
395	4.867691072894228	1.9377074829644483
396	8.629322549466373	2.1892182574653076
397	6.2051082864678335	1.9377076160040105
398	15.999944886017884	3.915807276213987
399	5.153432719395326	1.9377076160040023
400	4.52050784728031	2.5644682354435746
401	5.1868009700752715	1.9376315562683661
402	6.200771330537984	1.9376315562683664
403	3.703163923390621	2.352456737458071
404	3.0385441332290473	1.937631556268366
405	5.59347771677432	1.937631556268369
406	9.207516082808556	2.1890624351677848
408-A	0.010037371184586195	0.04998439206463383
408-B	0.1199501666825534	0.04998439206468444
409-A	0.060055839974668214	0.049984392064633815
409-B	0.09994404932765033	0.04998439206468445
410-A	0.14994994605677356	0.04998439206463383
410-B	0.1299626036398472	0.04998439206468444
