[TITLE]
Scenario: Base   
Date: 2017/12/1 8:39:59   

[JUNCTIONS]
 32                                  902.0000
 33                                  909.0000
 34                                  909.0000
 35                                  892.0000
 36                                  900.0000
 37                                  898.0000
 38                                  899.0000
 39                                  899.0000
 40                                  898.5000
 41                                  892.0000
 42                                  893.0000
 43                                  893.0000
 44                                  892.0000
 45                                  894.0000
 46                                  895.0000
 47                                  898.0000
 48                                  897.0000
 49                                  899.0000
 50                                  899.0000
 51                                  897.5000
 52                                  897.5000
 53                                  897.5000
 54                                  897.5000
 55                                  897.5000
 56                                  897.5000
 57                                  897.0000
 58                                  897.0000
 59                                  891.0000
 60                                  891.0000
 61                                  891.0000
 62                                  891.0000
 63                                  890.0000
 64                                  890.5000
 65                                  891.0000
 66                                  891.0000
 67                                  890.5000
 68                                  890.5000
 69                                  890.5000
 70                                  891.0000
 71                                  892.0000
 72                                  891.0000
 73                                  892.0000
 74                                  892.0000
 75                                  892.0000
 76                                  891.0000
 77                                  891.0000
 78                                  889.0000
 79                                  888.0000
 80                                  888.5000
 81                                  888.5000
 82                                  888.5000
 83                                  888.5000
 84                                  888.5000
 85                                  888.0000
 86                                  889.0000
 87                                  887.0000
 88                                  890.0000
 89                                  890.0000
 90                                  890.0000
 91                                  890.0000
 92                                  900.0000
 93                                  900.0000
 94                                  900.0000
 95                                  895.0000
 96                                  895.0000
 97                                  900.0000
 98                                  900.0000
 99                                  898.0000
 100                                 897.0000
 101                                 897.0000
 102                                 897.0000
 103                                 897.0000
 104                                 897.0000
 105                                 897.0000
 106                                 899.0000
 107                                 898.0000
 108                                 898.0000
 109                                 899.0000
 110                                 898.5000
 111                                 899.0000
 112                                 900.0000
 113                                 900.0000
 114                                 899.5000
 115                                 899.0000
 116                                 899.0000
 117                                 899.0000
 118                                 895.0000
 119                                 895.0000
 120                                 895.0000
 121                                 895.0000
 122                                 895.0000
 123                                 892.0000
 124                                 894.0000
 125                                 894.5000
 126                                 895.0000
 127                                 895.0000
 128                                 894.0000
 129                                 893.0000
 130                                 893.0000
 131                                 893.0000
 132                                 893.0000
 133                                 893.0000
 134                                 894.0000
 135                                 894.5000
 136                                 894.0000
 137                                 896.0000
 138                                 895.5000
 139                                 897.0000
 140                                 897.0000
 141                                 897.0000
 142                                 896.0000
 143                                 897.0000
 144                                 893.0000
 145                                 894.0000
 146                                 898.5000
 147                                 898.5000
 148                                 898.0000
 149                                 898.5000
 150                                 898.0000
 151                                 898.0000
 152                                 899.0000
 153                                 899.0000
 154                                 899.0000
 155                                 899.0000
 156                                 899.0000
 157                                 899.0000
 158                                 899.5000
 159                                 899.5000
 160                                 899.5000
 161                                 899.5000
 162                                 899.0000
 163                                 898.0000
 164                                 898.0000
 165                                 898.0000
 166                                 898.5000
 167                                 897.0000
 168                                 896.0000
 169                                 899.0000
 170                                 898.0000
 171                                 898.0000
 172                                 897.0000
 173                                 899.0000
 174                                 901.0000
 175                                 899.0000
 176                                 897.0000
 177                                 898.0000
 178                                 899.0000
 179                                 898.5000
 180                                 898.0000
 181                                 898.5000
 182                                 897.0000
 183                                 897.0000
 184                                 892.0000
 185                                 896.0000
 186                                 897.0000
 187                                 897.0000
 188                                 900.0000
 189                                 903.0000
 190                                 902.0000
 191                                 901.0000
 192                                 899.0000
 193                                 899.0000
 194                                 899.0000
 195                                 899.0000
 196                                 899.0000
 197                                 899.0000
 198                                 899.0000
 199                                 899.0000
 200                                 899.0000
 201                                 899.0000
 202                                 899.0000
 203                                 899.0000
 204                                 900.0000
 205                                 899.0000
 206                                 899.0000
 207                                 892.0000
 208                                 892.0000
 209                                 898.0000
 210                                 898.0000
 211                                 898.0000
 212                                 898.0000
 213                                 898.0000
 214                                 898.0000
 215                                 898.0000
 216                                 898.0000
 217                                 899.0000
 218                                 898.0000
 219                                 899.0000
 220                                 899.0000
 221                                 899.0000
 222                                 897.0000
 223                                 897.0000
 224                                 898.0000
 225                                 898.0000
 226                                 898.0000
 227                                 898.0000
 228                                 899.0000
 229                                 899.0000
 230                                 899.0000
 231                                 899.0000
 232                                 899.0000
 233                                 895.0000
 234                                 895.0000
 235                                 885.0000
 236                                 885.0000
 237                                 885.0000
 238                                 887.5000
 239                                 887.5000
 240                                 887.5000
 241                                 887.5000
 242                                 887.5000
 243                                 887.5000
 244                                 888.0000
 245                                 887.5000
 246                                 887.0000
 247                                 887.0000
 248                                 887.0000
 249                                 887.0000
 250                                 887.5000
 251                                 887.5000
 252                                 887.5000
 253                                 889.0000
 254                                 890.0000
 255                                 889.0000
 256                                 889.0000
 257                                 889.0000
 258                                 888.5000
 259                                 888.5000
 260                                 888.5000
 261                                 888.0000
 262                                 888.0000
 263                                 890.0000
 264                                 889.5000
 265                                 889.5000
 266                                 889.0000
 267                                 889.0000
 268                                 889.5000
 269                                 889.5000
 270                                 889.5000
 271                                 889.5000
 272                                 889.0000
 273                                 889.0000
 274                                 889.0000
 275                                 890.0000
 276                                 892.0000
 277                                 892.0000
 278                                 891.0000
 279                                 891.0000
 280                                 891.0000
 281                                 890.0000
 282                                 891.0000
 283                                 891.0000
 284                                 893.0000
 285                                 891.5000
 286                                 890.0000
 287                                 891.0000
 288                                 892.0000
 289                                 891.0000
 290                                 892.0000
 291                                 891.0000
 292                                 890.5000
 293                                 892.0000
 294                                 892.0000
 295                                 892.0000
 296                                 891.0000
 297                                 891.0000
 298                                 892.0000
 299                                 888.0000
 300                                 888.0000
 301                                 888.0000
 302                                 888.5000
 303                                 888.5000
 304                                 888.0000
 305                                 888.0000
 306                                 888.0000
 307                                 889.0000
 308                                 888.5000
 309                                 888.5000
 310                                 888.0000
 311                                 888.0000
 312                                 888.0000
 313                                 888.0000
 314                                 888.0000
 315                                 888.0000
 316                                 888.0000
 317                                 888.5000
 318                                 889.0000
 319                                 889.0000
 320                                 889.0000
 321                                 888.5000
 322                                 888.5000
 323                                 889.0000
 324                                 888.5000
 325                                 889.0000
 326                                 889.0000
 327                                 889.0000
 328                                 889.0000
 329                                 889.0000
 330                                 889.0000
 331                                 889.0000
 332                                 889.0000
 333                                 889.0000
 334                                 889.0000
 335                                 889.0000
 336                                 890.0000
 337                                 890.0000
 338                                 890.0000
 339                                 890.0000
 340                                 890.0000
 341                                 890.5000
 342                                 890.5000
 343                                 890.5000
 344                                 891.0000
 345                                 891.0000
 346                                 891.0000
 347                                 890.5000
 348                                 890.5000
 349                                 890.5000
 350                                 890.5000
 351                                 891.0000
 352                                 892.0000
 353                                 893.0000
 354                                 893.0000
 355                                 893.0000
 356                                 892.0000
 357                                 892.0000
 358                                 892.0000
 359                                 892.0000
 360                                 892.0000
 361                                 892.0000
 362                                 892.0000
 363                                 892.0000
 364                                 892.0000
 365                                 893.0000
 366                                 893.0000
 367                                 893.0000
 368                                 893.0000
 369                                 893.0000
 370                                 893.0000
 371                                 893.0000
 372                                 893.0000
 373                                 893.0000
 374                                 893.0000
 375                                 892.0000
 376                                 892.0000
 377                                 892.0000
 378                                 892.0000
 379                                 893.0000
 380                                 893.0000
 381                                 893.5000
 382                                 893.0000
 383                                 893.5000
 384                                 893.0000
 385                                 893.0000
 386                                 893.5000
 387                                 893.5000
 388                                 893.0000
 389                                 892.0000
 390                                 892.0000
 391                                 892.0000
 392                                 893.0000
 393                                 894.0000
 394                                 894.0000
 395                                 893.0000
 396                                 894.0000
 397                                 893.0000
 398                                 893.0000
 399                                 893.0000
 400                                 893.0000
 401                                 897.0000
 402                                 897.0000
 403                                 896.0000
 404                                 896.0000
 405                                 896.0000
 406                                 897.0000
 408-A                               909.0000
 408-B                               909.0000
 409-A                               909.0000
 409-B                               909.0000
 410-A                               909.0000
 410-B                               909.0000

[RESERVOIRS]
 407                                 912.0000 

[TANKS]
 882                                 925.0000      50.0000      40.0000      70.0000      35.0000       0.1000 

[PIPES]
 411                             32                              189                                 348.0000      16.0000     120.0000       0.0000 
 412                             190                             32                                  105.0000      16.0000     120.0000       0.0000 
 413                             408-B                           33                                   30.0000      24.0000     130.0000       0.0000 
 414                             34                              408-A                                30.0000      24.0000     130.0000       0.0000 
 415                             409-B                           33                                   30.0000      24.0000     130.0000       0.0000 
 416                             34                              409-A                                30.0000      24.0000     130.0000       0.0000 
 417                             33                              410-B                                30.0000      24.0000     130.0000       0.0000 
 418                             32                              33                                  759.0000      24.0000     130.0000       0.0000 
 419                             34                              407                                  30.0000      24.0000     130.0000       0.0000 
 420                             410-A                           34                                   30.0000      24.0000     130.0000       0.0000 
 421                             35                              208                                1404.0000      16.0000     120.0000       0.0000 
 422                             364                             35                                  591.0000      16.0000     120.0000       0.0000 
 423                             38                              36                                 2838.0000       6.0000     110.0000       0.0000 
 424                             38                              37                                  432.0000       6.0000     110.0000       0.0000 
 425                             155                             38                                  126.0000       6.0000     110.0000       0.0000 
 426                             40                              39                                  231.0000       6.0000     110.0000       0.0000 
 427                             40                              163                                 252.0000       6.0000     110.0000       0.0000 
 428                             151                             40                                  375.0000       6.0000     110.0000       0.0000 
 429                             44                              41                                  228.0000       6.0000     110.0000       0.0000 
 430                             41                              131                                  84.0000       6.0000     110.0000       0.0000 
 431                             123                             41                                  297.0000       6.0000     110.0000       0.0000 
 432                             42                              43                                  300.0000       6.0000     110.0000       0.0000 
 433                             43                              42                                  417.0000       6.0000     110.0000       0.0000 
 434                             44                              43                                  267.0000       6.0000     110.0000       0.0000 
 435                             44                              123                                 126.0000       6.0000     110.0000       0.0000 
 436                             145                             44                                  270.0000       6.0000     110.0000       0.0000 
 437                             46                              45                                  507.0000       6.0000     110.0000       0.0000 
 438                             46                              145                                 282.0000       6.0000     110.0000       0.0000 
 439                             185                             46                                  474.0000       6.0000     110.0000       0.0000 
 440                             48                              47                                  237.0000       6.0000     110.0000       0.0000 
 441                             48                              185                                 291.0000      16.0000     120.0000       0.0000 
 442                             186                             48                                  342.0000      16.0000     120.0000       0.0000 
 443                             50                              49                                  282.0000       6.0000     110.0000       0.0000 
 444                             50                              109                                 450.0000      16.0000     120.0000       0.0000 
 445                             205                             50                                  240.0000      16.0000     120.0000       0.0000 
 446                             57                              51                                  486.0000       6.0000     110.0000       0.0000 
 447                             53                              52                                  102.0000       6.0000     110.0000       0.0000 
 448                             53                              54                                  303.0000       6.0000     110.0000       0.0000 
 449                             56                              53                                   63.0000       6.0000     110.0000       0.0000 
 450                             56                              55                                   90.0000       6.0000     110.0000       0.0000 
 451                             57                              56                                  246.0000       6.0000     110.0000       0.0000 
 452                             58                              57                                  171.0000       6.0000     110.0000       0.0000 
 453                             58                              222                                  60.0000      16.0000     120.0000       0.0000 
 454                             102                             58                                  384.0000      16.0000     120.0000       0.0000 
 455                             60                              61                                  189.0000       6.0000     110.0000       0.0000 
 456                             60                              59                                   57.0000       6.0000     110.0000       0.0000 
 457                             61                              60                                  510.0000       6.0000     110.0000       0.0000 
 458                             62                              61                                  591.0000       6.0000     110.0000       0.0000 
 459                             63                              62                                  171.0000       6.0000     110.0000       0.0000 
 460                             63                              291                                 273.0000      12.0000     115.0000       0.0000 
 461                             69                              63                                  654.0000      12.0000     115.0000       0.0000 
 462                             65                              64                                  318.0000       6.0000     110.0000       0.0000 
 463                             65                              289                                 351.0000      12.0000     115.0000       0.0000 
 464                             291                             65                                  321.0000      12.0000     115.0000       0.0000 
 465                             74                              66                                  690.0000       6.0000     110.0000       0.0000 
 466                             66                              68                                   87.0000       6.0000     110.0000       0.0000 
 467                             70                              66                                   54.0000       6.0000     110.0000       0.0000 
 468                             68                              67                                  249.0000       6.0000     110.0000       0.0000 
 469                             68                              69                                  147.0000       6.0000     110.0000       0.0000 
 470                             292                             69                                  186.0000      12.0000     115.0000       0.0000 
 471                             71                              70                                  582.0000       6.0000     110.0000       0.0000 
 472                             73                              71                                  285.0000       6.0000     110.0000       0.0000 
 473                             73                              72                                  240.0000       6.0000     110.0000       0.0000 
 474                             74                              73                                   72.0000       6.0000     110.0000       0.0000 
 475                             75                              74                                  276.0000       6.0000     110.0000       0.0000 
 476                             76                              75                                  663.0000       6.0000     110.0000       0.0000 
 477                             77                              76                                  621.0000       6.0000     110.0000       0.0000 
 478                             77                              275                                 468.0000       8.0000     110.0000       0.0000 
 479                             292                             77                                  333.0000      12.0000     115.0000       0.0000 
 480                             83                              78                                  630.0000       6.0000     110.0000       0.0000 
 481                             84                              79                                  870.0000       6.0000     110.0000       0.0000 
 482                             82                              80                                  948.0000       6.0000     110.0000       0.0000 
 483                             82                              81                                   96.0000       6.0000     110.0000       0.0000 
 484                             85                              82                                  465.0000       6.0000     110.0000       0.0000 
 485                             84                              83                                  348.0000       6.0000     110.0000       0.0000 
 486                             85                              84                                  276.0000       6.0000     110.0000       0.0000 
 487                             86                              85                                 2139.0000       6.0000     110.0000       0.0000 
 488                             87                              86                                  387.0000       6.0000     110.0000       0.0000 
 489                             87                              250                                 147.0000       6.0000     110.0000       0.0000 
 490                             248                             87                                  111.0000       6.0000     110.0000       0.0000 
 491                             90                              88                                  621.0000       6.0000     110.0000       0.0000 